FoamFile
{
    version     2.0;
    format      ascii;
    class       dictionary;
    object      blockMeshDict;
}

convertToMeters 1.0;

vertices
(
    (0 0 0)  // vertex 0
    (1 0 0)  // vertex 1
    (0 0.05 0)  // vertex 2
    (1 0.05 0)  // vertex 3
    (0 0 0.05)  // vertex 4
    (1 0 0.05)  // vertex 5
    (0 0.05 0.05)  // vertex 6
    (1 0.05 0.05)  // vertex 7
);

blocks
(
    hex (0 1 3 2 4 5 7 6) (20 1 1) simpleGrading (1 1 1)
);

edges
(
);

boundary
(
    inlet
    {
	type patch;
	faces
    (
        (0 2 6 4)
    );
    }

    outlet
    {
	type patch;
	faces    
    (
        (1 3 7 5)
    );
    }

    sides
    {
	type empty;
	faces
    (
        (0 1 5 4)
        (2 3 7 6)
    );
    }

);

//*************************************** caesar wiratama ************************************ //
//*************************************** pttensor.com *************************************** //
